<?xml version="1.0" ?>
<additional>
	
	

	<rerouter edges="BB02_rev" id="PBB02_rev_00">
		<interval begin="0.0" end="20000">
			<parkingAreaReroute id="BB02_rev_00" visible="true"/>
			<parkingAreaReroute id="BB02_rev_01" visible="true"/>
			<parkingAreaReroute id="BB02_rev_02" visible="true"/>
			<parkingAreaReroute id="BB02_rev_03" visible="true"/>
			<parkingAreaReroute id="BB02_rev_04" visible="true"/>
			<parkingAreaReroute id="BB02_rev_05" visible="true"/>
			<parkingAreaReroute id="BB02_rev_06" visible="true"/>
			<parkingAreaReroute id="BB02_rev_07" visible="true"/>
		</interval>
	</rerouter>
	<rerouter edges="BB02_rev" id="PBB02_rev_01">
		<interval begin="0.0" end="20000">
			<parkingAreaReroute id="BB02_rev_01" visible="true"/>
			<parkingAreaReroute id="BB02_rev_02" visible="true"/>
			<parkingAreaReroute id="BB02_rev_03" visible="true"/>
			<parkingAreaReroute id="BB02_rev_04" visible="true"/>
			<parkingAreaReroute id="BB02_rev_05" visible="true"/>
			<parkingAreaReroute id="BB02_rev_06" visible="true"/>
			<parkingAreaReroute id="BB02_rev_07" visible="true"/>
			<parkingAreaReroute id="BB02_rev_00" visible="true"/>
		</interval>
	</rerouter>
	<rerouter edges="BB02_rev" id="PBB02_rev_02">
		<interval begin="0.0" end="20000">
			<parkingAreaReroute id="BB02_rev_02" visible="true"/>
			<parkingAreaReroute id="BB02_rev_03" visible="true"/>
			<parkingAreaReroute id="BB02_rev_04" visible="true"/>
			<parkingAreaReroute id="BB02_rev_05" visible="true"/>
			<parkingAreaReroute id="BB02_rev_06" visible="true"/>
			<parkingAreaReroute id="BB02_rev_07" visible="true"/>
			<parkingAreaReroute id="BB02_rev_00" visible="true"/>
			<parkingAreaReroute id="BB02_rev_01" visible="true"/>
		</interval>
	</rerouter>
	<rerouter edges="BB02_rev" id="PBB02_rev_03">
		<interval begin="0.0" end="20000">
			<parkingAreaReroute id="BB02_rev_03" visible="true"/>
			<parkingAreaReroute id="BB02_rev_04" visible="true"/>
			<parkingAreaReroute id="BB02_rev_05" visible="true"/>
			<parkingAreaReroute id="BB02_rev_06" visible="true"/>
			<parkingAreaReroute id="BB02_rev_07" visible="true"/>
			<parkingAreaReroute id="BB02_rev_00" visible="true"/>
			<parkingAreaReroute id="BB02_rev_01" visible="true"/>
			<parkingAreaReroute id="BB02_rev_02" visible="true"/>
		</interval>
	</rerouter>
	<rerouter edges="BB02_rev" id="PBB02_rev_04">
		<interval begin="0.0" end="20000">
			<parkingAreaReroute id="BB02_rev_04" visible="true"/>
			<parkingAreaReroute id="BB02_rev_05" visible="true"/>
			<parkingAreaReroute id="BB02_rev_06" visible="true"/>
			<parkingAreaReroute id="BB02_rev_07" visible="true"/>
			<parkingAreaReroute id="BB02_rev_00" visible="true"/>
			<parkingAreaReroute id="BB02_rev_01" visible="true"/>
			<parkingAreaReroute id="BB02_rev_02" visible="true"/>
			<parkingAreaReroute id="BB02_rev_03" visible="true"/>
		</interval>
	</rerouter>
	<rerouter edges="BB02_rev" id="PBB02_rev_05">
		<interval begin="0.0" end="20000">
			<parkingAreaReroute id="BB02_rev_05" visible="true"/>
			<parkingAreaReroute id="BB02_rev_06" visible="true"/>
			<parkingAreaReroute id="BB02_rev_07" visible="true"/>
			<parkingAreaReroute id="BB02_rev_00" visible="true"/>
			<parkingAreaReroute id="BB02_rev_01" visible="true"/>
			<parkingAreaReroute id="BB02_rev_02" visible="true"/>
			<parkingAreaReroute id="BB02_rev_03" visible="true"/>
			<parkingAreaReroute id="BB02_rev_04" visible="true"/>
		</interval>
	</rerouter>
	<rerouter edges="BB02_rev" id="PBB02_rev_06">
		<interval begin="0.0" end="20000">
			<parkingAreaReroute id="BB02_rev_06" visible="true"/>
			<parkingAreaReroute id="BB02_rev_07" visible="true"/>
			<parkingAreaReroute id="BB02_rev_00" visible="true"/>
			<parkingAreaReroute id="BB02_rev_01" visible="true"/>
			<parkingAreaReroute id="BB02_rev_02" visible="true"/>
			<parkingAreaReroute id="BB02_rev_03" visible="true"/>
			<parkingAreaReroute id="BB02_rev_04" visible="true"/>
			<parkingAreaReroute id="BB02_rev_05" visible="true"/>
		</interval>
	</rerouter>
	<rerouter edges="BB02_rev" id="PBB02_rev_07">
		<interval begin="0.0" end="20000">
			<parkingAreaReroute id="BB02_rev_07" visible="true"/>
			<parkingAreaReroute id="BB02_rev_00" visible="true"/>
			<parkingAreaReroute id="BB02_rev_01" visible="true"/>
			<parkingAreaReroute id="BB02_rev_02" visible="true"/>
			<parkingAreaReroute id="BB02_rev_03" visible="true"/>
			<parkingAreaReroute id="BB02_rev_04" visible="true"/>
			<parkingAreaReroute id="BB02_rev_05" visible="true"/>
			<parkingAreaReroute id="BB02_rev_06" visible="true"/>
		</interval>
	</rerouter>
</additional>
