<?xml version="1.0" encoding="UTF-8"?>

<!-- generated on Sat Oct 19 08:27:52 2019 by Eclipse SUMO netconvert Version 1.2.0
<configuration xmlns:xsi="http://www.w3.org/2001/XMLSchema-instance" xsi:noNamespaceSchemaLocation="http://sumo.dlr.de/xsd/netconvertConfiguration.xsd">

    <input>
        <node-files value="mini.nod.xml"/>
        <edge-files value="mini.edg.xml"/>
        <type-files value="mini.type.xml"/>
    </input>

    <output>
        <output-file value="mini.net.xml"/>
    </output>

</configuration>
-->

<net version="1.1" junctionCornerDetail="5" limitTurnSpeed="5.50" xmlns:xsi="http://www.w3.org/2001/XMLSchema-instance" xsi:noNamespaceSchemaLocation="http://sumo.dlr.de/xsd/net_file.xsd">

    <location netOffset="0.00,0.00" convBoundary="0.00,0.00,300.00,300.00" origBoundary="0.00,0.00,300.00,300.00" projParameter="!"/>

    <type id="L1S25" priority="1" numLanes="1" speed="25.00"/>
    <type id="L2S25" priority="1" numLanes="2" speed="25.00"/>
    <type id="L3S25" priority="1" numLanes="3" speed="25.00"/>

    <edge id=":A01_0" function="internal">
        <lane id=":A01_0_0" index="0" speed="6.08" length="7.74" shape="-1.60,3.20 -1.30,1.10 -0.40,-0.40 1.10,-1.30 3.20,-1.60"/>
    </edge>
    <edge id=":A01_1" function="internal">
        <lane id=":A01_1_0" index="0" speed="3.90" length="2.58" shape="3.20,1.60 2.50,1.70 2.00,2.00 1.70,2.50 1.60,3.20"/>
    </edge>
    <edge id=":A02_0" function="internal">
        <lane id=":A02_0_0" index="0" speed="25.00" length="14.40" shape="-1.60,107.20 -1.60,92.80"/>
    </edge>
    <edge id=":A02_1" function="internal">
        <lane id=":A02_1_0" index="0" speed="8.00" length="5.93" shape="-1.60,107.20 -1.05,103.35 0.00,101.60"/>
    </edge>
    <edge id=":A02_2" function="internal">
        <lane id=":A02_2_0" index="0" speed="3.65" length="2.34" shape="-1.60,107.20 -0.80,106.00 0.00,105.60"/>
    </edge>
    <edge id=":A02_9" function="internal">
        <lane id=":A02_9_0" index="0" speed="8.00" length="8.26" shape="0.00,101.60 0.60,100.60 3.35,98.95 7.20,98.40"/>
    </edge>
    <edge id=":A02_10" function="internal">
        <lane id=":A02_10_0" index="0" speed="3.65" length="2.34" shape="0.00,105.60 0.80,106.00 1.60,107.20"/>
    </edge>
    <edge id=":A02_3" function="internal">
        <lane id=":A02_3_0" index="0" speed="6.51" length="9.03" shape="7.20,101.60 4.75,101.95 3.00,103.00 1.95,104.75 1.60,107.20"/>
    </edge>
    <edge id=":A02_4" function="internal">
        <lane id=":A02_4_0" index="0" speed="8.00" length="14.19" shape="7.20,101.60 3.35,101.05 0.60,99.40 -1.05,96.65 -1.60,92.80"/>
    </edge>
    <edge id=":A02_5" function="internal">
        <lane id=":A02_5_0" index="0" speed="3.65" length="4.67" shape="7.20,101.60 6.00,100.80 5.60,100.00 6.00,99.20 7.20,98.40"/>
    </edge>
    <edge id=":A02_6" function="internal">
        <lane id=":A02_6_0" index="0" speed="6.51" length="9.03" shape="1.60,92.80 1.95,95.25 3.00,97.00 4.75,98.05 7.20,98.40"/>
    </edge>
    <edge id=":A02_7" function="internal">
        <lane id=":A02_7_0" index="0" speed="25.00" length="14.40" shape="1.60,92.80 1.60,107.20"/>
    </edge>
    <edge id=":A02_8" function="internal">
        <lane id=":A02_8_0" index="0" speed="3.65" length="2.34" shape="1.60,92.80 0.80,94.00 0.00,94.40"/>
    </edge>
    <edge id=":A02_11" function="internal">
        <lane id=":A02_11_0" index="0" speed="3.65" length="2.34" shape="0.00,94.40 -0.80,94.00 -1.60,92.80"/>
    </edge>
    <edge id=":A03_0" function="internal">
        <lane id=":A03_0_0" index="0" speed="25.00" length="14.40" shape="-1.60,207.20 -1.60,192.80"/>
    </edge>
    <edge id=":A03_1" function="internal">
        <lane id=":A03_1_0" index="0" speed="8.00" length="5.93" shape="-1.60,207.20 -1.05,203.35 0.00,201.60"/>
    </edge>
    <edge id=":A03_2" function="internal">
        <lane id=":A03_2_0" index="0" speed="3.65" length="2.34" shape="-1.60,207.20 -0.80,206.00 0.00,205.60"/>
    </edge>
    <edge id=":A03_9" function="internal">
        <lane id=":A03_9_0" index="0" speed="8.00" length="8.26" shape="0.00,201.60 0.60,200.60 3.35,198.95 7.20,198.40"/>
    </edge>
    <edge id=":A03_10" function="internal">
        <lane id=":A03_10_0" index="0" speed="3.65" length="2.34" shape="0.00,205.60 0.80,206.00 1.60,207.20"/>
    </edge>
    <edge id=":A03_3" function="internal">
        <lane id=":A03_3_0" index="0" speed="6.51" length="9.03" shape="7.20,201.60 4.75,201.95 3.00,203.00 1.95,204.75 1.60,207.20"/>
    </edge>
    <edge id=":A03_4" function="internal">
        <lane id=":A03_4_0" index="0" speed="8.00" length="14.19" shape="7.20,201.60 3.35,201.05 0.60,199.40 -1.05,196.65 -1.60,192.80"/>
    </edge>
    <edge id=":A03_5" function="internal">
        <lane id=":A03_5_0" index="0" speed="3.65" length="4.67" shape="7.20,201.60 6.00,200.80 5.60,200.00 6.00,199.20 7.20,198.40"/>
    </edge>
    <edge id=":A03_6" function="internal">
        <lane id=":A03_6_0" index="0" speed="6.51" length="9.03" shape="1.60,192.80 1.95,195.25 3.00,197.00 4.75,198.05 7.20,198.40"/>
    </edge>
    <edge id=":A03_7" function="internal">
        <lane id=":A03_7_0" index="0" speed="25.00" length="14.40" shape="1.60,192.80 1.60,207.20"/>
    </edge>
    <edge id=":A03_8" function="internal">
        <lane id=":A03_8_0" index="0" speed="3.65" length="2.34" shape="1.60,192.80 0.80,194.00 0.00,194.40"/>
    </edge>
    <edge id=":A03_11" function="internal">
        <lane id=":A03_11_0" index="0" speed="3.65" length="2.34" shape="0.00,194.40 -0.80,194.00 -1.60,192.80"/>
    </edge>
    <edge id=":A04_0" function="internal">
        <lane id=":A04_0_0" index="0" speed="6.08" length="7.74" shape="3.20,301.60 1.10,301.30 -0.40,300.40 -1.30,298.90 -1.60,296.80"/>
    </edge>
    <edge id=":A04_1" function="internal">
        <lane id=":A04_1_0" index="0" speed="3.90" length="2.58" shape="1.60,296.80 1.70,297.50 2.00,298.00 2.50,298.30 3.20,298.40"/>
    </edge>
    <edge id=":B01_0" function="internal">
        <lane id=":B01_0_0" index="0" speed="6.51" length="9.03" shape="98.40,7.20 98.05,4.75 97.00,3.00 95.25,1.95 92.80,1.60"/>
    </edge>
    <edge id=":B01_1" function="internal">
        <lane id=":B01_1_0" index="0" speed="8.00" length="14.19" shape="98.40,7.20 98.95,3.35 100.60,0.60 103.35,-1.05 107.20,-1.60"/>
    </edge>
    <edge id=":B01_2" function="internal">
        <lane id=":B01_2_0" index="0" speed="3.65" length="4.67" shape="98.40,7.20 99.20,6.00 100.00,5.60 100.80,6.00 101.60,7.20"/>
    </edge>
    <edge id=":B01_3" function="internal">
        <lane id=":B01_3_0" index="0" speed="6.51" length="9.03" shape="107.20,1.60 104.75,1.95 103.00,3.00 101.95,4.75 101.60,7.20"/>
    </edge>
    <edge id=":B01_4" function="internal">
        <lane id=":B01_4_0" index="0" speed="25.00" length="14.40" shape="107.20,1.60 92.80,1.60"/>
    </edge>
    <edge id=":B01_5" function="internal">
        <lane id=":B01_5_0" index="0" speed="3.65" length="2.34" shape="107.20,1.60 106.00,0.80 105.60,0.00"/>
    </edge>
    <edge id=":B01_9" function="internal">
        <lane id=":B01_9_0" index="0" speed="3.65" length="2.34" shape="105.60,0.00 106.00,-0.80 107.20,-1.60"/>
    </edge>
    <edge id=":B01_6" function="internal">
        <lane id=":B01_6_0" index="0" speed="25.00" length="14.40" shape="92.80,-1.60 107.20,-1.60"/>
    </edge>
    <edge id=":B01_7" function="internal">
        <lane id=":B01_7_0" index="0" speed="8.00" length="5.93" shape="92.80,-1.60 96.65,-1.05 98.40,0.00"/>
    </edge>
    <edge id=":B01_8" function="internal">
        <lane id=":B01_8_0" index="0" speed="3.65" length="2.34" shape="92.80,-1.60 94.00,-0.80 94.40,0.00"/>
    </edge>
    <edge id=":B01_10" function="internal">
        <lane id=":B01_10_0" index="0" speed="8.00" length="8.26" shape="98.40,0.00 99.40,0.60 101.05,3.35 101.60,7.20"/>
    </edge>
    <edge id=":B01_11" function="internal">
        <lane id=":B01_11_0" index="0" speed="3.65" length="2.34" shape="94.40,0.00 94.00,0.80 92.80,1.60"/>
    </edge>
    <edge id=":B02_0" function="internal">
        <lane id=":B02_0_0" index="0" speed="6.51" length="9.03" shape="98.40,107.20 98.05,104.75 97.00,103.00 95.25,101.95 92.80,101.60"/>
    </edge>
    <edge id=":B02_1" function="internal">
        <lane id=":B02_1_0" index="0" speed="25.00" length="14.40" shape="98.40,107.20 98.40,92.80"/>
    </edge>
    <edge id=":B02_2" function="internal">
        <lane id=":B02_2_0" index="0" speed="8.00" length="5.93" shape="98.40,107.20 98.95,103.35 100.00,101.60"/>
    </edge>
    <edge id=":B02_3" function="internal">
        <lane id=":B02_3_0" index="0" speed="3.65" length="2.34" shape="98.40,107.20 99.20,106.00 100.00,105.60"/>
    </edge>
    <edge id=":B02_16" function="internal">
        <lane id=":B02_16_0" index="0" speed="8.00" length="8.26" shape="100.00,101.60 100.60,100.60 103.35,98.95 107.20,98.40"/>
    </edge>
    <edge id=":B02_17" function="internal">
        <lane id=":B02_17_0" index="0" speed="3.65" length="2.34" shape="100.00,105.60 100.80,106.00 101.60,107.20"/>
    </edge>
    <edge id=":B02_4" function="internal">
        <lane id=":B02_4_0" index="0" speed="6.51" length="9.03" shape="107.20,101.60 104.75,101.95 103.00,103.00 101.95,104.75 101.60,107.20"/>
    </edge>
    <edge id=":B02_5" function="internal">
        <lane id=":B02_5_0" index="0" speed="25.00" length="14.40" shape="107.20,101.60 92.80,101.60"/>
    </edge>
    <edge id=":B02_6" function="internal">
        <lane id=":B02_6_0" index="0" speed="8.00" length="14.19" shape="107.20,101.60 103.35,101.05 100.60,99.40 98.95,96.65 98.40,92.80"/>
    </edge>
    <edge id=":B02_7" function="internal">
        <lane id=":B02_7_0" index="0" speed="3.65" length="4.67" shape="107.20,101.60 106.00,100.80 105.60,100.00 106.00,99.20 107.20,98.40"/>
    </edge>
    <edge id=":B02_8" function="internal">
        <lane id=":B02_8_0" index="0" speed="6.51" length="9.03" shape="101.60,92.80 101.95,95.25 103.00,97.00 104.75,98.05 107.20,98.40"/>
    </edge>
    <edge id=":B02_9" function="internal">
        <lane id=":B02_9_0" index="0" speed="25.00" length="14.40" shape="101.60,92.80 101.60,107.20"/>
    </edge>
    <edge id=":B02_10" function="internal">
        <lane id=":B02_10_0" index="0" speed="8.00" length="5.93" shape="101.60,92.80 101.05,96.65 100.00,98.40"/>
    </edge>
    <edge id=":B02_11" function="internal">
        <lane id=":B02_11_0" index="0" speed="3.65" length="2.34" shape="101.60,92.80 100.80,94.00 100.00,94.40"/>
    </edge>
    <edge id=":B02_18" function="internal">
        <lane id=":B02_18_0" index="0" speed="8.00" length="8.26" shape="100.00,98.40 99.40,99.40 96.65,101.05 92.80,101.60"/>
    </edge>
    <edge id=":B02_19" function="internal">
        <lane id=":B02_19_0" index="0" speed="3.65" length="2.34" shape="100.00,94.40 99.20,94.00 98.40,92.80"/>
    </edge>
    <edge id=":B02_12" function="internal">
        <lane id=":B02_12_0" index="0" speed="6.51" length="9.03" shape="92.80,98.40 95.25,98.05 97.00,97.00 98.05,95.25 98.40,92.80"/>
    </edge>
    <edge id=":B02_13" function="internal">
        <lane id=":B02_13_0" index="0" speed="25.00" length="14.40" shape="92.80,98.40 107.20,98.40"/>
    </edge>
    <edge id=":B02_14" function="internal">
        <lane id=":B02_14_0" index="0" speed="8.00" length="14.19" shape="92.80,98.40 96.65,98.95 99.40,100.60 101.05,103.35 101.60,107.20"/>
    </edge>
    <edge id=":B02_15" function="internal">
        <lane id=":B02_15_0" index="0" speed="3.65" length="4.67" shape="92.80,98.40 94.00,99.20 94.40,100.00 94.00,100.80 92.80,101.60"/>
    </edge>
    <edge id=":B03_0" function="internal">
        <lane id=":B03_0_0" index="0" speed="6.51" length="9.03" shape="98.40,207.20 98.05,204.75 97.00,203.00 95.25,201.95 92.80,201.60"/>
    </edge>
    <edge id=":B03_1" function="internal">
        <lane id=":B03_1_0" index="0" speed="25.00" length="14.40" shape="98.40,207.20 98.40,192.80"/>
    </edge>
    <edge id=":B03_2" function="internal">
        <lane id=":B03_2_0" index="0" speed="8.00" length="5.93" shape="98.40,207.20 98.95,203.35 100.00,201.60"/>
    </edge>
    <edge id=":B03_3" function="internal">
        <lane id=":B03_3_0" index="0" speed="3.65" length="2.34" shape="98.40,207.20 99.20,206.00 100.00,205.60"/>
    </edge>
    <edge id=":B03_16" function="internal">
        <lane id=":B03_16_0" index="0" speed="8.00" length="8.26" shape="100.00,201.60 100.60,200.60 103.35,198.95 107.20,198.40"/>
    </edge>
    <edge id=":B03_17" function="internal">
        <lane id=":B03_17_0" index="0" speed="3.65" length="2.34" shape="100.00,205.60 100.80,206.00 101.60,207.20"/>
    </edge>
    <edge id=":B03_4" function="internal">
        <lane id=":B03_4_0" index="0" speed="6.51" length="9.03" shape="107.20,201.60 104.75,201.95 103.00,203.00 101.95,204.75 101.60,207.20"/>
    </edge>
    <edge id=":B03_5" function="internal">
        <lane id=":B03_5_0" index="0" speed="25.00" length="14.40" shape="107.20,201.60 92.80,201.60"/>
    </edge>
    <edge id=":B03_6" function="internal">
        <lane id=":B03_6_0" index="0" speed="8.00" length="14.19" shape="107.20,201.60 103.35,201.05 100.60,199.40 98.95,196.65 98.40,192.80"/>
    </edge>
    <edge id=":B03_7" function="internal">
        <lane id=":B03_7_0" index="0" speed="3.65" length="4.67" shape="107.20,201.60 106.00,200.80 105.60,200.00 106.00,199.20 107.20,198.40"/>
    </edge>
    <edge id=":B03_8" function="internal">
        <lane id=":B03_8_0" index="0" speed="6.51" length="9.03" shape="101.60,192.80 101.95,195.25 103.00,197.00 104.75,198.05 107.20,198.40"/>
    </edge>
    <edge id=":B03_9" function="internal">
        <lane id=":B03_9_0" index="0" speed="25.00" length="14.40" shape="101.60,192.80 101.60,207.20"/>
    </edge>
    <edge id=":B03_10" function="internal">
        <lane id=":B03_10_0" index="0" speed="8.00" length="5.93" shape="101.60,192.80 101.05,196.65 100.00,198.40"/>
    </edge>
    <edge id=":B03_11" function="internal">
        <lane id=":B03_11_0" index="0" speed="3.65" length="2.34" shape="101.60,192.80 100.80,194.00 100.00,194.40"/>
    </edge>
    <edge id=":B03_18" function="internal">
        <lane id=":B03_18_0" index="0" speed="8.00" length="8.26" shape="100.00,198.40 99.40,199.40 96.65,201.05 92.80,201.60"/>
    </edge>
    <edge id=":B03_19" function="internal">
        <lane id=":B03_19_0" index="0" speed="3.65" length="2.34" shape="100.00,194.40 99.20,194.00 98.40,192.80"/>
    </edge>
    <edge id=":B03_12" function="internal">
        <lane id=":B03_12_0" index="0" speed="6.51" length="9.03" shape="92.80,198.40 95.25,198.05 97.00,197.00 98.05,195.25 98.40,192.80"/>
    </edge>
    <edge id=":B03_13" function="internal">
        <lane id=":B03_13_0" index="0" speed="25.00" length="14.40" shape="92.80,198.40 107.20,198.40"/>
    </edge>
    <edge id=":B03_14" function="internal">
        <lane id=":B03_14_0" index="0" speed="8.00" length="14.19" shape="92.80,198.40 96.65,198.95 99.40,200.60 101.05,203.35 101.60,207.20"/>
    </edge>
    <edge id=":B03_15" function="internal">
        <lane id=":B03_15_0" index="0" speed="3.65" length="4.67" shape="92.80,198.40 94.00,199.20 94.40,200.00 94.00,200.80 92.80,201.60"/>
    </edge>
    <edge id=":B04_0" function="internal">
        <lane id=":B04_0_0" index="0" speed="25.00" length="14.40" shape="107.20,301.60 92.80,301.60"/>
    </edge>
    <edge id=":B04_1" function="internal">
        <lane id=":B04_1_0" index="0" speed="8.00" length="5.93" shape="107.20,301.60 103.35,301.05 101.60,300.00"/>
    </edge>
    <edge id=":B04_2" function="internal">
        <lane id=":B04_2_0" index="0" speed="3.65" length="2.34" shape="107.20,301.60 106.00,300.80 105.60,300.00"/>
    </edge>
    <edge id=":B04_9" function="internal">
        <lane id=":B04_9_0" index="0" speed="8.00" length="8.26" shape="101.60,300.00 100.60,299.40 98.95,296.65 98.40,292.80"/>
    </edge>
    <edge id=":B04_10" function="internal">
        <lane id=":B04_10_0" index="0" speed="3.65" length="2.34" shape="105.60,300.00 106.00,299.20 107.20,298.40"/>
    </edge>
    <edge id=":B04_3" function="internal">
        <lane id=":B04_3_0" index="0" speed="6.51" length="9.03" shape="101.60,292.80 101.95,295.25 103.00,297.00 104.75,298.05 107.20,298.40"/>
    </edge>
    <edge id=":B04_4" function="internal">
        <lane id=":B04_4_0" index="0" speed="8.00" length="14.19" shape="101.60,292.80 101.05,296.65 99.40,299.40 96.65,301.05 92.80,301.60"/>
    </edge>
    <edge id=":B04_5" function="internal">
        <lane id=":B04_5_0" index="0" speed="3.65" length="4.67" shape="101.60,292.80 100.80,294.00 100.00,294.40 99.20,294.00 98.40,292.80"/>
    </edge>
    <edge id=":B04_6" function="internal">
        <lane id=":B04_6_0" index="0" speed="6.51" length="9.03" shape="92.80,298.40 95.25,298.05 97.00,297.00 98.05,295.25 98.40,292.80"/>
    </edge>
    <edge id=":B04_7" function="internal">
        <lane id=":B04_7_0" index="0" speed="25.00" length="14.40" shape="92.80,298.40 107.20,298.40"/>
    </edge>
    <edge id=":B04_8" function="internal">
        <lane id=":B04_8_0" index="0" speed="3.65" length="2.34" shape="92.80,298.40 94.00,299.20 94.40,300.00"/>
    </edge>
    <edge id=":B04_11" function="internal">
        <lane id=":B04_11_0" index="0" speed="3.65" length="2.34" shape="94.40,300.00 94.00,300.80 92.80,301.60"/>
    </edge>
    <edge id=":C01_0" function="internal">
        <lane id=":C01_0_0" index="0" speed="6.51" length="9.03" shape="198.40,7.20 198.05,4.75 197.00,3.00 195.25,1.95 192.80,1.60"/>
    </edge>
    <edge id=":C01_1" function="internal">
        <lane id=":C01_1_0" index="0" speed="8.00" length="14.19" shape="198.40,7.20 198.95,3.35 200.60,0.60 203.35,-1.05 207.20,-1.60"/>
    </edge>
    <edge id=":C01_2" function="internal">
        <lane id=":C01_2_0" index="0" speed="3.65" length="4.67" shape="198.40,7.20 199.20,6.00 200.00,5.60 200.80,6.00 201.60,7.20"/>
    </edge>
    <edge id=":C01_3" function="internal">
        <lane id=":C01_3_0" index="0" speed="6.51" length="9.03" shape="207.20,1.60 204.75,1.95 203.00,3.00 201.95,4.75 201.60,7.20"/>
    </edge>
    <edge id=":C01_4" function="internal">
        <lane id=":C01_4_0" index="0" speed="25.00" length="14.40" shape="207.20,1.60 192.80,1.60"/>
    </edge>
    <edge id=":C01_5" function="internal">
        <lane id=":C01_5_0" index="0" speed="3.65" length="2.34" shape="207.20,1.60 206.00,0.80 205.60,0.00"/>
    </edge>
    <edge id=":C01_9" function="internal">
        <lane id=":C01_9_0" index="0" speed="3.65" length="2.34" shape="205.60,0.00 206.00,-0.80 207.20,-1.60"/>
    </edge>
    <edge id=":C01_6" function="internal">
        <lane id=":C01_6_0" index="0" speed="25.00" length="14.40" shape="192.80,-1.60 207.20,-1.60"/>
    </edge>
    <edge id=":C01_7" function="internal">
        <lane id=":C01_7_0" index="0" speed="8.00" length="5.93" shape="192.80,-1.60 196.65,-1.05 198.40,0.00"/>
    </edge>
    <edge id=":C01_8" function="internal">
        <lane id=":C01_8_0" index="0" speed="3.65" length="2.34" shape="192.80,-1.60 194.00,-0.80 194.40,0.00"/>
    </edge>
    <edge id=":C01_10" function="internal">
        <lane id=":C01_10_0" index="0" speed="8.00" length="8.26" shape="198.40,0.00 199.40,0.60 201.05,3.35 201.60,7.20"/>
    </edge>
    <edge id=":C01_11" function="internal">
        <lane id=":C01_11_0" index="0" speed="3.65" length="2.34" shape="194.40,0.00 194.00,0.80 192.80,1.60"/>
    </edge>
    <edge id=":C02_0" function="internal">
        <lane id=":C02_0_0" index="0" speed="6.51" length="9.03" shape="198.40,107.20 198.05,104.75 197.00,103.00 195.25,101.95 192.80,101.60"/>
    </edge>
    <edge id=":C02_1" function="internal">
        <lane id=":C02_1_0" index="0" speed="25.00" length="14.40" shape="198.40,107.20 198.40,92.80"/>
    </edge>
    <edge id=":C02_2" function="internal">
        <lane id=":C02_2_0" index="0" speed="8.00" length="5.93" shape="198.40,107.20 198.95,103.35 200.00,101.60"/>
    </edge>
    <edge id=":C02_3" function="internal">
        <lane id=":C02_3_0" index="0" speed="3.65" length="2.34" shape="198.40,107.20 199.20,106.00 200.00,105.60"/>
    </edge>
    <edge id=":C02_16" function="internal">
        <lane id=":C02_16_0" index="0" speed="8.00" length="8.26" shape="200.00,101.60 200.60,100.60 203.35,98.95 207.20,98.40"/>
    </edge>
    <edge id=":C02_17" function="internal">
        <lane id=":C02_17_0" index="0" speed="3.65" length="2.34" shape="200.00,105.60 200.80,106.00 201.60,107.20"/>
    </edge>
    <edge id=":C02_4" function="internal">
        <lane id=":C02_4_0" index="0" speed="6.51" length="9.03" shape="207.20,101.60 204.75,101.95 203.00,103.00 201.95,104.75 201.60,107.20"/>
    </edge>
    <edge id=":C02_5" function="internal">
        <lane id=":C02_5_0" index="0" speed="25.00" length="14.40" shape="207.20,101.60 192.80,101.60"/>
    </edge>
    <edge id=":C02_6" function="internal">
        <lane id=":C02_6_0" index="0" speed="8.00" length="14.19" shape="207.20,101.60 203.35,101.05 200.60,99.40 198.95,96.65 198.40,92.80"/>
    </edge>
    <edge id=":C02_7" function="internal">
        <lane id=":C02_7_0" index="0" speed="3.65" length="4.67" shape="207.20,101.60 206.00,100.80 205.60,100.00 206.00,99.20 207.20,98.40"/>
    </edge>
    <edge id=":C02_8" function="internal">
        <lane id=":C02_8_0" index="0" speed="6.51" length="9.03" shape="201.60,92.80 201.95,95.25 203.00,97.00 204.75,98.05 207.20,98.40"/>
    </edge>
    <edge id=":C02_9" function="internal">
        <lane id=":C02_9_0" index="0" speed="25.00" length="14.40" shape="201.60,92.80 201.60,107.20"/>
    </edge>
    <edge id=":C02_10" function="internal">
        <lane id=":C02_10_0" index="0" speed="8.00" length="5.93" shape="201.60,92.80 201.05,96.65 200.00,98.40"/>
    </edge>
    <edge id=":C02_11" function="internal">
        <lane id=":C02_11_0" index="0" speed="3.65" length="2.34" shape="201.60,92.80 200.80,94.00 200.00,94.40"/>
    </edge>
    <edge id=":C02_18" function="internal">
        <lane id=":C02_18_0" index="0" speed="8.00" length="8.26" shape="200.00,98.40 199.40,99.40 196.65,101.05 192.80,101.60"/>
    </edge>
    <edge id=":C02_19" function="internal">
        <lane id=":C02_19_0" index="0" speed="3.65" length="2.34" shape="200.00,94.40 199.20,94.00 198.40,92.80"/>
    </edge>
    <edge id=":C02_12" function="internal">
        <lane id=":C02_12_0" index="0" speed="6.51" length="9.03" shape="192.80,98.40 195.25,98.05 197.00,97.00 198.05,95.25 198.40,92.80"/>
    </edge>
    <edge id=":C02_13" function="internal">
        <lane id=":C02_13_0" index="0" speed="25.00" length="14.40" shape="192.80,98.40 207.20,98.40"/>
    </edge>
    <edge id=":C02_14" function="internal">
        <lane id=":C02_14_0" index="0" speed="8.00" length="14.19" shape="192.80,98.40 196.65,98.95 199.40,100.60 201.05,103.35 201.60,107.20"/>
    </edge>
    <edge id=":C02_15" function="internal">
        <lane id=":C02_15_0" index="0" speed="3.65" length="4.67" shape="192.80,98.40 194.00,99.20 194.40,100.00 194.00,100.80 192.80,101.60"/>
    </edge>
    <edge id=":C03_0" function="internal">
        <lane id=":C03_0_0" index="0" speed="6.51" length="9.03" shape="198.40,207.20 198.05,204.75 197.00,203.00 195.25,201.95 192.80,201.60"/>
    </edge>
    <edge id=":C03_1" function="internal">
        <lane id=":C03_1_0" index="0" speed="25.00" length="14.40" shape="198.40,207.20 198.40,192.80"/>
    </edge>
    <edge id=":C03_2" function="internal">
        <lane id=":C03_2_0" index="0" speed="8.00" length="5.93" shape="198.40,207.20 198.95,203.35 200.00,201.60"/>
    </edge>
    <edge id=":C03_3" function="internal">
        <lane id=":C03_3_0" index="0" speed="3.65" length="2.34" shape="198.40,207.20 199.20,206.00 200.00,205.60"/>
    </edge>
    <edge id=":C03_16" function="internal">
        <lane id=":C03_16_0" index="0" speed="8.00" length="8.26" shape="200.00,201.60 200.60,200.60 203.35,198.95 207.20,198.40"/>
    </edge>
    <edge id=":C03_17" function="internal">
        <lane id=":C03_17_0" index="0" speed="3.65" length="2.34" shape="200.00,205.60 200.80,206.00 201.60,207.20"/>
    </edge>
    <edge id=":C03_4" function="internal">
        <lane id=":C03_4_0" index="0" speed="6.51" length="9.03" shape="207.20,201.60 204.75,201.95 203.00,203.00 201.95,204.75 201.60,207.20"/>
    </edge>
    <edge id=":C03_5" function="internal">
        <lane id=":C03_5_0" index="0" speed="25.00" length="14.40" shape="207.20,201.60 192.80,201.60"/>
    </edge>
    <edge id=":C03_6" function="internal">
        <lane id=":C03_6_0" index="0" speed="8.00" length="14.19" shape="207.20,201.60 203.35,201.05 200.60,199.40 198.95,196.65 198.40,192.80"/>
    </edge>
    <edge id=":C03_7" function="internal">
        <lane id=":C03_7_0" index="0" speed="3.65" length="4.67" shape="207.20,201.60 206.00,200.80 205.60,200.00 206.00,199.20 207.20,198.40"/>
    </edge>
    <edge id=":C03_8" function="internal">
        <lane id=":C03_8_0" index="0" speed="6.51" length="9.03" shape="201.60,192.80 201.95,195.25 203.00,197.00 204.75,198.05 207.20,198.40"/>
    </edge>
    <edge id=":C03_9" function="internal">
        <lane id=":C03_9_0" index="0" speed="25.00" length="14.40" shape="201.60,192.80 201.60,207.20"/>
    </edge>
    <edge id=":C03_10" function="internal">
        <lane id=":C03_10_0" index="0" speed="8.00" length="5.93" shape="201.60,192.80 201.05,196.65 200.00,198.40"/>
    </edge>
    <edge id=":C03_11" function="internal">
        <lane id=":C03_11_0" index="0" speed="3.65" length="2.34" shape="201.60,192.80 200.80,194.00 200.00,194.40"/>
    </edge>
    <edge id=":C03_18" function="internal">
        <lane id=":C03_18_0" index="0" speed="8.00" length="8.26" shape="200.00,198.40 199.40,199.40 196.65,201.05 192.80,201.60"/>
    </edge>
    <edge id=":C03_19" function="internal">
        <lane id=":C03_19_0" index="0" speed="3.65" length="2.34" shape="200.00,194.40 199.20,194.00 198.40,192.80"/>
    </edge>
    <edge id=":C03_12" function="internal">
        <lane id=":C03_12_0" index="0" speed="6.51" length="9.03" shape="192.80,198.40 195.25,198.05 197.00,197.00 198.05,195.25 198.40,192.80"/>
    </edge>
    <edge id=":C03_13" function="internal">
        <lane id=":C03_13_0" index="0" speed="25.00" length="14.40" shape="192.80,198.40 207.20,198.40"/>
    </edge>
    <edge id=":C03_14" function="internal">
        <lane id=":C03_14_0" index="0" speed="8.00" length="14.19" shape="192.80,198.40 196.65,198.95 199.40,200.60 201.05,203.35 201.60,207.20"/>
    </edge>
    <edge id=":C03_15" function="internal">
        <lane id=":C03_15_0" index="0" speed="3.65" length="4.67" shape="192.80,198.40 194.00,199.20 194.40,200.00 194.00,200.80 192.80,201.60"/>
    </edge>
    <edge id=":C04_0" function="internal">
        <lane id=":C04_0_0" index="0" speed="25.00" length="14.40" shape="207.20,301.60 192.80,301.60"/>
    </edge>
    <edge id=":C04_1" function="internal">
        <lane id=":C04_1_0" index="0" speed="8.00" length="5.93" shape="207.20,301.60 203.35,301.05 201.60,300.00"/>
    </edge>
    <edge id=":C04_2" function="internal">
        <lane id=":C04_2_0" index="0" speed="3.65" length="2.34" shape="207.20,301.60 206.00,300.80 205.60,300.00"/>
    </edge>
    <edge id=":C04_9" function="internal">
        <lane id=":C04_9_0" index="0" speed="8.00" length="8.26" shape="201.60,300.00 200.60,299.40 198.95,296.65 198.40,292.80"/>
    </edge>
    <edge id=":C04_10" function="internal">
        <lane id=":C04_10_0" index="0" speed="3.65" length="2.34" shape="205.60,300.00 206.00,299.20 207.20,298.40"/>
    </edge>
    <edge id=":C04_3" function="internal">
        <lane id=":C04_3_0" index="0" speed="6.51" length="9.03" shape="201.60,292.80 201.95,295.25 203.00,297.00 204.75,298.05 207.20,298.40"/>
    </edge>
    <edge id=":C04_4" function="internal">
        <lane id=":C04_4_0" index="0" speed="8.00" length="14.19" shape="201.60,292.80 201.05,296.65 199.40,299.40 196.65,301.05 192.80,301.60"/>
    </edge>
    <edge id=":C04_5" function="internal">
        <lane id=":C04_5_0" index="0" speed="3.65" length="4.67" shape="201.60,292.80 200.80,294.00 200.00,294.40 199.20,294.00 198.40,292.80"/>
    </edge>
    <edge id=":C04_6" function="internal">
        <lane id=":C04_6_0" index="0" speed="6.51" length="9.03" shape="192.80,298.40 195.25,298.05 197.00,297.00 198.05,295.25 198.40,292.80"/>
    </edge>
    <edge id=":C04_7" function="internal">
        <lane id=":C04_7_0" index="0" speed="25.00" length="14.40" shape="192.80,298.40 207.20,298.40"/>
    </edge>
    <edge id=":C04_8" function="internal">
        <lane id=":C04_8_0" index="0" speed="3.65" length="2.34" shape="192.80,298.40 194.00,299.20 194.40,300.00"/>
    </edge>
    <edge id=":C04_11" function="internal">
        <lane id=":C04_11_0" index="0" speed="3.65" length="2.34" shape="194.40,300.00 194.00,300.80 192.80,301.60"/>
    </edge>
    <edge id=":D01_0" function="internal">
        <lane id=":D01_0_0" index="0" speed="3.90" length="2.58" shape="298.40,3.20 298.30,2.50 298.00,2.00 297.50,1.70 296.80,1.60"/>
    </edge>
    <edge id=":D01_1" function="internal">
        <lane id=":D01_1_0" index="0" speed="6.08" length="7.74" shape="296.80,-1.60 298.90,-1.30 300.40,-0.40 301.30,1.10 301.60,3.20"/>
    </edge>
    <edge id=":D02_0" function="internal">
        <lane id=":D02_0_0" index="0" speed="6.51" length="9.03" shape="298.40,107.20 298.05,104.75 297.00,103.00 295.25,101.95 292.80,101.60"/>
    </edge>
    <edge id=":D02_1" function="internal">
        <lane id=":D02_1_0" index="0" speed="25.00" length="14.40" shape="298.40,107.20 298.40,92.80"/>
    </edge>
    <edge id=":D02_2" function="internal">
        <lane id=":D02_2_0" index="0" speed="3.65" length="2.34" shape="298.40,107.20 299.20,106.00 300.00,105.60"/>
    </edge>
    <edge id=":D02_9" function="internal">