<additional>

<rerouter edges="CD03" id="PCD03_00"><interval begin="0.0" end="20000"><parkingAreaReroute id="PCD03_00" visible="true" /><parkingAreaReroute id="PCD03_01" visible="true" /><parkingAreaReroute id="PCD03_02" visible="true" /><parkingAreaReroute id="PCD03_03" visible="true" /><parkingAreaReroute id="PCD03_04" visible="true" /><parkingAreaReroute id="PCD03_05" visible="true" /><parkingAreaReroute id="PCD03_06" visible="true" /></interval></rerouter><rerouter edges="CD03" id="PCD03_01"><interval begin="0.0" end="20000"><parkingAreaReroute id="PCD03_01" visible="true" /><parkingAreaReroute id="PCD03_02" visible="true" /><parkingAreaReroute id="PCD03_03" visible="true" /><parkingAreaReroute id="PCD03_04" visible="true" /><parkingAreaReroute id="PCD03_05" visible="true" /><parkingAreaReroute id="PCD03_06" visible="true" /><parkingAreaReroute id="PCD03_00" visible="true" /></interval></rerouter><rerouter edges="CD03" id="PCD03_02"><interval begin="0.0" end="20000"><parkingAreaReroute id="PCD03_02" visible="true" /><parkingAreaReroute id="PCD03_03" visible="true" /><parkingAreaReroute id="PCD03_04" visible="true" /><parkingAreaReroute id="PCD03_05" visible="true" /><parkingAreaReroute id="PCD03_06" visible="true" /><parkingAreaReroute id="PCD03_00" visible="true" /><parkingAreaReroute id="PCD03_01" visible="true" /></interval></rerouter><rerouter edges="CD03" id="PCD03_03"><interval begin="0.0" end="20000"><parkingAreaReroute id="PCD03_03" visible="true" /><parkingAreaReroute id="PCD03_04" visible="true" /><parkingAreaReroute id="PCD03_05" visible="true" /><parkingAreaReroute id="PCD03_06" visible="true" /><parkingAreaReroute id="PCD03_00" visible="true" /><parkingAreaReroute id="PCD03_01" visible="true" /><parkingAreaReroute id="PCD03_02" visible="true" /></interval></rerouter><rerouter edges="CD03" id="PCD03_04"><interval begin="0.0" end="20000"><parkingAreaReroute id="PCD03_04" visible="true" /><parkingAreaReroute id="PCD03_05" visible="true" /><parkingAreaReroute id="PCD03_06" visible="true" /><parkingAreaReroute id="PCD03_00" visible="true" /><parkingAreaReroute id="PCD03_01" visible="true" /><parkingAreaReroute id="PCD03_02" visible="true" /><parkingAreaReroute id="PCD03_03" visible="true" /></interval></rerouter><rerouter edges="CD03" id="PCD03_05"><interval begin="0.0" end="20000"><parkingAreaReroute id="PCD03_05" visible="true" /><parkingAreaReroute id="PCD03_06" visible="true" /><parkingAreaReroute id="PCD03_00" visible="true" /><parkingAreaReroute id="PCD03_01" visible="true" /><parkingAreaReroute id="PCD03_02" visible="true" /><parkingAreaReroute id="PCD03_03" visible="true" /><parkingAreaReroute id="PCD03_04" visible="true" /></interval></rerouter><rerouter edges="CD03" id="PCD03_06"><interval begin="0.0" end="20000"><parkingAreaReroute id="PCD03_06" visible="true" /><parkingAreaReroute id="PCD03_00" visible="true" /><parkingAreaReroute id="PCD03_01" visible="true" /><parkingAreaReroute id="PCD03_02" visible="true" /><parkingAreaReroute id="PCD03_03" visible="true" /><parkingAreaReroute id="PCD03_04" visible="true" /><parkingAreaReroute id="PCD03_05" visible="true" /></interval></rerouter></additional>