<?xml version="1.0" encoding="UTF-8"?>
<additional>
    <parkingArea id="PBC03_07" lane="BC03_0" startPos="68" endPos="76">
        <space x="182" y="195" length="5" angle="90"/>
    </parkingArea>
</additional>
