<?xml version="1.0" encoding="UTF-8"?>
<additional>
    <parkingArea id="PAA03_01" lane="AA03_0" startPos="20" endPos="28">
        <space x="5" y="230" length="5" angle="0"/>
    </parkingArea>
</additional>
