<?xml version="1.0" encoding="UTF-8"?>
<additional>
    <parkingArea id="PCB03_00" lane="CB03_0" startPos="21" endPos="29">
        <space x="170" y="205" length="5" angle="90"/>
    </parkingArea>
</additional>
