<?xml version="1.0" encoding="UTF-8"?>
<additional>
    <parkingArea id="PBB03_rev_02" lane="BB03_rev_0" startPos="61" endPos="69">
        <space x="95" y="226" length="5" angle="0"/>
    </parkingArea>
</additional>
