<?xml version="1.0" encoding="UTF-8"?>
<additional>
    <parkingArea id="PCD02_05" lane="CD02_0" startPos="52" endPos="60">
        <space x="266" y="95" length="5" angle="90"/>
    </parkingArea>
</additional>
