<?xml version="1.0" encoding="UTF-8"?>
<additional>
    <parkingArea id="PBC03_01" lane="BC03_0" startPos="20" endPos="28">
        <space x="134" y="195" length="5" angle="90"/>
    </parkingArea>
</additional>
