<?xml version="1.0" encoding="UTF-8"?>
<additional>
    <parkingArea id="PBB03_rev_01" lane="BB03_rev_0" startPos="69" endPos="77">
        <space x="95" y="218" length="5" angle="0"/>
    </parkingArea>
</additional>
