<?xml version="1.0" encoding="UTF-8"?>
<additional>
    <parkingArea id="PDC03_00" lane="DC03_0" startPos="77" endPos="85">
        <space x="222" y="205" length="5" angle="90"/>
    </parkingArea>
</additional>
