<?xml version="1.0" encoding="UTF-8"?>
<additional>
    <parkingArea id="PCD02_04" lane="CD02_0" startPos="44" endPos="52">
        <space x="258" y="95" length="5" angle="90"/>
    </parkingArea>
</additional>
