<?xml version="1.0" encoding="UTF-8"?>
<additional>
    <parkingArea id="PCD02_00" lane="CD02_0" startPos="12" endPos="20">
        <space x="226" y="95" length="5" angle="90"/>
    </parkingArea>
</additional>
