<?xml version="1.0" encoding="UTF-8"?>
<additional>
    <parkingArea id="P5" lane="BA01_0" startPos="70" endPos="80">
        <space x="20" y="5" length="5" angle="90"/>
    </parkingArea>
</additional>
