<?xml version="1.0" encoding="UTF-8"?>
<additional>
    <parkingArea id="PBB02_rev_01" lane="BB02_rev_0" startPos="29" endPos="37">
        <space x="95" y="158" length="5" angle="0"/>
    </parkingArea>
</additional>
