<?xml version="1.0" encoding="UTF-8"?>
<additional>
    <parkingArea id="PCD03_00" lane="CD03_0" startPos="12" endPos="20">
        <space x="222" y="195" length="5" angle="90"/>
    </parkingArea>
</additional>
