<?xml version="1.0" encoding="UTF-8"?>
<additional>
    <parkingArea id="P7" lane="BA01_0" startPos="50" endPos="60">
        <space x="40" y="5" length="5" angle="90"/>
    </parkingArea>
</additional>
