<?xml version="1.0" encoding="UTF-8"?>
<additional>
    <parkingArea id="PCD02_03" lane="CD02_0" startPos="36" endPos="44">
        <space x="250" y="95" length="5" angle="90"/>
    </parkingArea>
</additional>
