<?xml version="1.0" encoding="UTF-8"?>
<additional>
    <parkingArea id="PBB02_06" lane="BB02_0" startPos="60" endPos="68">
        <space x="105" y="170" length="5" angle="0"/>
    </parkingArea>
</additional>
