<?xml version="1.0" encoding="UTF-8"?>
<additional>
    <parkingArea id="PDC03_02" lane="DC03_0" startPos="61" endPos="69">
        <space x="238" y="205" length="5" angle="90"/>
    </parkingArea>
</additional>
