<?xml version="1.0" encoding="UTF-8"?>
<additional>
    <parkingArea id="PDC03_03" lane="DC03_0" startPos="53" endPos="61">
        <space x="246" y="205" length="5" angle="90"/>
    </parkingArea>
</additional>
