<?xml version="1.0" encoding="UTF-8"?>
<additional>
    <parkingArea id="PBB02_02" lane="BB02_0" startPos="28" endPos="36">
        <space x="105" y="138" length="5" angle="0"/>
    </parkingArea>
</additional>
