<?xml version="1.0" encoding="UTF-8"?>
<additional>
    <parkingArea id="PBB02_rev_03" lane="BB02_rev_0" startPos="45" endPos="53">
        <space x="95" y="142" length="5" angle="0"/>
    </parkingArea>
</additional>
