<?xml version="1.0" encoding="UTF-8"?>
<additional>
    <parkingArea id="PAA03_04" lane="AA03_0" startPos="44" endPos="52">
        <space x="5" y="254" length="5" angle="0"/>
    </parkingArea>
</additional>
