<?xml version="1.0" encoding="UTF-8"?>
<additional>
    <parkingArea id="PBB03_rev_07" lane="BB03_rev_0" startPos="21" endPos="29">
        <space x="95" y="266" length="5" angle="0"/>
    </parkingArea>
</additional>
