<?xml version="1.0" encoding="UTF-8"?>
<additional>
    <parkingArea id="P4" lane="CB01_0" startPos="45" endPos="55">
        <space x="130" y="15" length="5" angle="315"/>
        <space x="135" y="15" length="5" angle="315"/>
        <space x="140" y="15" length="5" angle="315"/>
        <space x="145" y="15" length="5" angle="315"/>
        <space x="150" y="15" length="5" angle="315"/>
        <space x="155" y="15" length="5" angle="315"/>
        <space x="160" y="15" length="5" angle="315"/>
        <space x="165" y="15" length="5" angle="315"/>
        <space x="170" y="15" length="5" angle="315"/>
        <space x="175" y="15" length="5" angle="315"/>
        <space x="130.0" y="20.0" length="5" angle="315"/>
        <space x="135.0" y="20.0" length="5" angle="315"/>
        <space x="140.0" y="20.0" length="5" angle="315"/>
        <space x="145.0" y="20.0" length="5" angle="315"/>
        <space x="150.0" y="20.0" length="5" angle="315"/>
        <space x="155.0" y="20.0" length="5" angle="315"/>
        <space x="160.0" y="20.0" length="5" angle="315"/>
        <space x="165.0" y="20.0" length="5" angle="315"/>
        <space x="170.0" y="20.0" length="5" angle="315"/>
        <space x="175.0" y="20.0" length="5" angle="315"/>
        <space x="130.0" y="25.0" length="5" angle="315"/>
        <space x="135.0" y="25.0" length="5" angle="315"/>
        <space x="140.0" y="25.0" length="5" angle="315"/>
        <space x="145.0" y="25.0" length="5" angle="315"/>
        <space x="150.0" y="25.0" length="5" angle="315"/>
        <space x="155.0" y="25.0" length="5" angle="315"/>
        <space x="160.0" y="25.0" length="5" angle="315"/>
        <space x="165.0" y="25.0" length="5" angle="315"/>
        <space x="170.0" y="25.0" length="5" angle="315"/>
        <space x="175.0" y="25.0" length="5" angle="315"/>
        <space x="130.0" y="30.0" length="5" angle="315"/>
        <space x="135.0" y="30.0" length="5" angle="315"/>
        <space x="140.0" y="30.0" length="5" angle="315"/>
        <space x="145.0" y="30.0" length="5" angle="315"/>
        <space x="150.0" y="30.0" length="5" angle="315"/>
        <space x="155.0" y="30.0" length="5" angle="315"/>
        <space x="160.0" y="30.0" length="5" angle="315"/>
        <space x="165.0" y="30.0" length="5" angle="315"/>
        <space x="170.0" y="30.0" length="5" angle="315"/>
        <space x="175.0" y="30.0" length="5" angle="315"/>
        <space x="130.0" y="35.0" length="5" angle="315"/>
        <space x="135.0" y="35.0" length="5" angle="315"/>
        <space x="140.0" y="35.0" length="5" angle="315"/>
        <space x="145.0" y="35.0" length="5" angle="315"/>
        <space x="150.0" y="35.0" length="5" angle="315"/>
        <space x="155.0" y="35.0" length="5" angle="315"/>
        <space x="160.0" y="35.0" length="5" angle="315"/>
        <space x="165.0" y="35.0" length="5" angle="315"/>
        <space x="170.0" y="35.0" length="5" angle="315"/>
        <space x="175.0" y="35.0" length="5" angle="315"/>
        <space x="130.0" y="40.0" length="5" angle="315"/>
        <space x="135.0" y="40.0" length="5" angle="315"/>
        <space x="140.0" y="40.0" length="5" angle="315"/>
        <space x="145.0" y="40.0" length="5" angle="315"/>
        <space x="150.0" y="40.0" length="5" angle="315"/>
        <space x="155.0" y="40.0" length="5" angle="315"/>
        <space x="160.0" y="40.0" length="5" angle="315"/>
        <space x="165.0" y="40.0" length="5" angle="315"/>
        <space x="170.0" y="40.0" length="5" angle="315"/>
        <space x="175.0" y="40.0" length="5" angle="315"/>
        <space x="130.0" y="45.0" length="5" angle="315"/>
        <space x="135.0" y="45.0" length="5" angle="315"/>
        <space x="140.0" y="45.0" length="5" angle="315"/>
        <space x="145.0" y="45.0" length="5" angle="315"/>
        <space x="150.0" y="45.0" length="5" angle="315"/>
        <space x="155.0" y="45.0" length="5" angle="315"/>
        <space x="160.0" y="45.0" length="5" angle="315"/>
        <space x="165.0" y="45.0" length="5" angle="315"/>
        <space x="170.0" y="45.0" length="5" angle="315"/>
        <space x="175.0" y="45.0" length="5" angle="315"/>
        <space x="130.0" y="50.0" length="5" angle="315"/>
        <space x="135.0" y="50.0" length="5" angle="315"/>
        <space x="140.0" y="50.0" length="5" angle="315"/>
        <space x="145.0" y="50.0" length="5" angle="315"/>
        <space x="150.0" y="50.0" length="5" angle="315"/>
        <space x="155.0" y="50.0" length="5" angle="315"/>
        <space x="160.0" y="50.0" length="5" angle="315"/>
        <space x="165.0" y="50.0" length="5" angle="315"/>
        <space x="170.0" y="50.0" length="5" angle="315"/>
        <space x="175.0" y="50.0" length="5" angle="315"/>
        <space x="130.0" y="55.0" length="5" angle="315"/>
        <space x="135.0" y="55.0" length="5" angle="315"/>
        <space x="140.0" y="55.0" length="5" angle="315"/>
        <space x="145.0" y="55.0" length="5" angle="315"/>
        <space x="150.0" y="55.0" length="5" angle="315"/>
        <space x="155.0" y="55.0" length="5" angle="315"/>
        <space x="160.0" y="55.0" length="5" angle="315"/>
        <space x="165.0" y="55.0" length="5" angle="315"/>
        <space x="170.0" y="55.0" length="5" angle="315"/>
        <space x="175.0" y="55.0" length="5" angle="315"/>
        <space x="130.0" y="60.0" length="5" angle="315"/>
        <space x="135.0" y="60.0" length="5" angle="315"/>
        <space x="140.0" y="60.0" length="5" angle="315"/>
        <space x="145.0" y="60.0" length="5" angle="315"/>
        <space x="150.0" y="60.0" length="5" angle="315"/>
        <space x="155.0" y="60.0" length="5" angle="315"/>
        <space x="160.0" y="60.0" length="5" angle="315"/>
        <space x="165.0" y="60.0" length="5" angle="315"/>
        <space x="170.0" y="60.0" length="5" angle="315"/>
        <space x="175.0" y="60.0" length="5" angle="315"/>
    </parkingArea>
</additional>
