<?xml version="1.0" encoding="UTF-8"?>
<additional>
    <parkingArea id="P2" lane="BC04_0" startPos="45" endPos="55">
        <space x="130" y="260" length="5" angle="315"/>
        <space x="135" y="260" length="5" angle="315"/>
        <space x="140" y="260" length="5" angle="315"/>
        <space x="145" y="260" length="5" angle="315"/>
        <space x="150" y="260" length="5" angle="315"/>
        <space x="130.0" y="265.0" length="5" angle="315"/>
        <space x="135.0" y="265.0" length="5" angle="315"/>
        <space x="140.0" y="265.0" length="5" angle="315"/>
        <space x="145.0" y="265.0" length="5" angle="315"/>
        <space x="150.0" y="265.0" length="5" angle="315"/>
        <space x="130.0" y="270.0" length="5" angle="315"/>
        <space x="135.0" y="270.0" length="5" angle="315"/>
        <space x="140.0" y="270.0" length="5" angle="315"/>
        <space x="145.0" y="270.0" length="5" angle="315"/>
        <space x="150.0" y="270.0" length="5" angle="315"/>
        <space x="130.0" y="275.0" length="5" angle="315"/>
        <space x="135.0" y="275.0" length="5" angle="315"/>
        <space x="140.0" y="275.0" length="5" angle="315"/>
        <space x="145.0" y="275.0" length="5" angle="315"/>
        <space x="150.0" y="275.0" length="5" angle="315"/>
        <space x="130.0" y="280.0" length="5" angle="315"/>
        <space x="135.0" y="280.0" length="5" angle="315"/>
        <space x="140.0" y="280.0" length="5" angle="315"/>
        <space x="145.0" y="280.0" length="5" angle="315"/>
        <space x="150.0" y="280.0" length="5" angle="315"/>
    </parkingArea>
</additional>
