<?xml version="1.0" encoding="UTF-8"?>
<additional>
    <parkingArea id="PAA03_06" lane="AA03_0" startPos="60" endPos="68">
        <space x="5" y="270" length="5" angle="0"/>
    </parkingArea>
</additional>
