<?xml version="1.0" encoding="UTF-8"?>
<additional>
    <parkingArea id="PBB03_rev_03" lane="BB03_rev_0" startPos="53" endPos="61">
        <space x="95" y="234" length="5" angle="0"/>
    </parkingArea>
</additional>
