<?xml version="1.0" encoding="UTF-8"?>
<additional>
    <parkingArea id="PAA03_05" lane="AA03_0" startPos="52" endPos="60">
        <space x="5" y="262" length="5" angle="0"/>
    </parkingArea>
</additional>
