<?xml version="1.0" encoding="UTF-8"?>
<additional>
    <parkingArea id="PBB02_07" lane="BB02_0" startPos="68" endPos="76">
        <space x="105" y="178" length="5" angle="0"/>
    </parkingArea>
</additional>
