<?xml version="1.0" encoding="UTF-8"?>
<additional>
    <parkingArea id="PDC03_07" lane="DC03_0" startPos="21" endPos="29">
        <space x="278" y="205" length="5" angle="90"/>
    </parkingArea>
</additional>
