<?xml version="1.0" encoding="UTF-8"?>
<additional>
    <parkingArea id="PCD03_05" lane="CD03_0" startPos="57" endPos="63">
        <space x="270" y="195" length="5" angle="90"/>
    </parkingArea>
</additional>
