<?xml version="1.0" encoding="UTF-8"?>
<additional>
    <parkingArea id="PCD03_06" lane="CD03_0" startPos="66" endPos="72">
        <space x="279" y="195" length="5" angle="90"/>
    </parkingArea>
</additional>
