<?xml version="1.0" encoding="UTF-8"?>
<additional>
    <parkingArea id="PBB02_rev_02" lane="BB02_rev_0" startPos="37" endPos="45">
        <space x="95" y="150" length="5" angle="0"/>
    </parkingArea>
</additional>
