<?xml version="1.0" encoding="UTF-8"?>
<additional>
    <parkingArea id="PBB03_rev_00" lane="BB03_rev_0" startPos="77" endPos="85">
        <space x="95" y="210" length="5" angle="0"/>
    </parkingArea>
</additional>
