<?xml version="1.0" encoding="UTF-8"?>
<additional>
    <parkingArea id="PBB02_05" lane="BB02_0" startPos="52" endPos="60">
        <space x="105" y="162" length="5" angle="0"/>
    </parkingArea>
</additional>
