<?xml version="1.0" encoding="UTF-8"?>
<additional>
    <parkingArea id="PCD02_01" lane="CD02_0" startPos="20" endPos="28">
        <space x="234" y="95" length="5" angle="90"/>
    </parkingArea>
</additional>
