<?xml version="1.0" encoding="UTF-8"?>
<additional>
    <parkingArea id="PBB02_01" lane="BB02_0" startPos="20" endPos="28">
        <space x="105" y="130" length="5" angle="0"/>
    </parkingArea>
</additional>
