<?xml version="1.0" encoding="UTF-8"?>
<additional>
    <parkingArea id="PBC03_06" lane="BC03_0" startPos="60" endPos="68">
        <space x="170" y="195" length="5" angle="90"/>
    </parkingArea>
</additional>
