<?xml version="1.0" encoding="UTF-8"?>
<additional>
    <parkingArea id="PCB03_02" lane="CB03_0" startPos="37" endPos="45">
        <space x="154" y="205" length="5" angle="90"/>
    </parkingArea>
</additional>
