<?xml version="1.0" encoding="UTF-8"?>
<additional>
    <parkingArea id="PBB02_rev_05" lane="BB02_rev_0" startPos="61" endPos="69">
        <space x="95" y="126" length="5" angle="0"/>
    </parkingArea>
</additional>
