<?xml version="1.0" encoding="UTF-8"?>
<additional>
    <parkingArea id="PCD03_01" lane="CD03_0" startPos="21" endPos="27">
        <space x="234" y="195" length="5" angle="90"/>
    </parkingArea>
</additional>
