<?xml version="1.0" encoding="UTF-8"?>
<additional>
    <parkingArea id="PBB03_rev_06" lane="BB03_rev_0" startPos="29" endPos="37">
        <space x="95" y="258" length="5" angle="0"/>
    </parkingArea>
</additional>
